Version 4
SHEET 1 1580 1036
WIRE -192 -304 -816 -304
WIRE -560 -80 -560 -112
WIRE -560 -80 -688 -80
WIRE -432 -80 -560 -80
WIRE -688 -32 -688 -80
WIRE -432 -32 -432 -80
WIRE 272 48 256 48
WIRE 624 48 272 48
WIRE 256 80 256 48
WIRE 224 96 -256 96
WIRE -816 128 -816 -304
WIRE -688 128 -688 48
WIRE -688 128 -816 128
WIRE -432 128 -432 48
WIRE -256 128 -256 96
WIRE -256 128 -432 128
WIRE 224 128 -48 128
WIRE -48 144 -48 128
WIRE 624 144 624 48
WIRE 432 176 400 176
WIRE -688 224 -688 128
WIRE -432 224 -432 128
WIRE 224 224 -48 224
WIRE -192 256 -192 -304
WIRE 224 256 -192 256
WIRE 336 288 336 240
WIRE 624 288 624 224
WIRE 624 288 336 288
WIRE 624 336 624 288
WIRE -688 352 -688 304
WIRE -560 352 -688 352
WIRE -432 352 -432 304
WIRE -432 352 -560 352
WIRE -560 384 -560 352
WIRE 624 480 624 416
FLAG 256 272 0
FLAG 624 480 0
FLAG 784 -64 0
FLAG 784 -144 5V
FLAG 272 48 5V
FLAG 944 -64 0
FLAG 944 -144 1V
FLAG -560 -112 1V
FLAG -560 384 0
FLAG 432 176 Vout
FLAG 816 160 0
FLAG 816 80 Rval
SYMBOL res -64 128 R0
SYMATTR InstName R1
SYMATTR Value 10
SYMBOL res 608 128 R0
SYMATTR InstName R2
SYMATTR Value 1k
SYMBOL res 608 320 R0
SYMATTR InstName R3
SYMATTR Value 1k
SYMBOL voltage 784 -160 R0
WINDOW 123 0 0 Left 2
WINDOW 39 0 0 Left 2
SYMATTR InstName V1
SYMATTR Value 5
SYMBOL voltage 944 -160 R0
WINDOW 123 0 0 Left 2
WINDOW 39 0 0 Left 2
SYMATTR InstName V2
SYMATTR Value 1
SYMBOL res -448 -48 R0
SYMATTR InstName R4
SYMATTR Value 350
SYMBOL res -704 -48 R0
SYMATTR InstName R5
SYMATTR Value R = (350+V(Rval))
SYMBOL res -704 208 R0
SYMATTR InstName R6
SYMATTR Value R = (350-V(Rval))
SYMBOL res -448 208 R0
SYMATTR InstName R7
SYMATTR Value 350
SYMBOL voltage 816 64 R0
WINDOW 123 0 0 Left 2
WINDOW 39 0 0 Left 2
WINDOW 3 52 96 Left 2
SYMATTR Value PWL(1 0 2 0.1 3 0.2 4 0.3 5 0.4 6 0.5 7 0.6 8 0.7 9 0.8 10 0.9)
SYMATTR InstName V3
SYMBOL Opamps\\AD8422 256 176 R0
SYMATTR InstName U2
TEXT 864 288 Left 2 !.tran 15
